omf/scratch/gosedPrototypes/OrvilleTreePond.MilConverted.glm
///////////////////////////////////////////////////////; 
// This glm created by 'Milsoft to GridLabD Export'. //; 
//             Wed Jan 28 15:54:29 2015              //; 
///////////////////////////////////////////////////////; 

clock { timestamp '2000-01-01 00:00:00'; } 

module powerflow{ solver_method FBS; } 
// Note: Number Of Looped Switches in WindMil = 0 

object node {
          name            ARBOR LAKE; 
          phases          ABCN; 
          bustype         PQ; 
          voltage_A       +7559.9995+0j; 
          voltage_B       -3779.9998-6547.1514j; 
          voltage_C       -3779.9998+6547.1514j; 
          nominal_voltage 7200; 
          } 

object node {name   _1069647_n; phases ABCN; nominal_voltage 7200;  } 

object underground_line {
          name   _1069647; 
          from   ARBOR LAKE; 
          to     _1069647_n; 
          phases ABCN; 
          length 19; 
          configuration SystemCnstDefaultABC__750 URD UG Conductor; 
          } 

object recloser {
          name                D95617; 
          from                _1069647_n; 
          to                  D95617_n; 
          phases              ABCN; 
          max_number_of_tries 0; 
          } 

object node {name   D95617_n; phases ABCN; nominal_voltage 7200;  } 

object underground_line {
          name   _1077548; 
          from   D95617_n; 
          to     _1077548_n; 
          phases ABCN; 
          length 7; 
          configuration SystemCnstDefaultABC__750 URD UG Conductor; 
          } 

object node {name   _1077548_n; phases ABCN; nominal_voltage 7200;  } 

object underground_line {
          name   _1100520; 
          from   _1077548_n; 
          to     _1100520_n; 
          phases ABCN; 
          length 308; 
          configuration SystemCnstDefaultABC__750 URD UG Conductor; 
          } 

object node {name   _1100520_n; phases ABCN; nominal_voltage 7200;  } 

object node {name   _95881-B_n; phases ABCN; nominal_voltage 7200;  } 

object switch {
          name   _95881-B; 
          from   _1100520_n; 
          to     _95881-B_n; 
          phases ABCN; 
          status CLOSED; 
          } 

object underground_line {
          name   _1100521; 
          from   _95881-B_n; 
          to     _1100521_n; 
          phases ABCN; 
          length 3; 
          configuration SystemCnstDefaultABC__750 URD UG Conductor; 
          } 

object node {name   _1100521_n; phases ABCN; nominal_voltage 7200;  } 

object underground_line {
          name   _1074044; 
          from   _1100521_n; 
          to     _1074044_n; 
          phases ABCN; 
          length 28; 
          configuration SystemCnstDefaultABC__750 URD UG Conductor; 
          } 

object node {name   _1074044_n; phases ABCN; nominal_voltage 7200;  } 

object switch {
          name   _94914-A; 
          from   _1074044_n; 
          to     _1074043_n; 
          phases ABCN; 
          status OPEN; 
          } 

object underground_line {
          name   _1074052; 
          from   _1100521_n; 
          to     _1074052_n; 
          phases ABCN; 
          length 25; 
          configuration SystemCnstDefaultABC__750 URD UG Conductor; 
          } 

object node {name   _1074052_n; phases ABCN; nominal_voltage 7200;  } 

object underground_line {
          name   _1100523; 
          from   _1100521_n; 
          to     _1100523_n; 
          phases ABCN; 
          length 4; 
          configuration SystemCnstDefaultABC__750 URD UG Conductor; 
          } 

object node {name   _1100523_n; phases ABCN; nominal_voltage 7200;  } 

object node {name   _96360-B_n; phases ABCN; nominal_voltage 7200;  } 

object switch {
          name   _96360-B; 
          from   _1100523_n; 
          to     _96360-B_n; 
          phases ABCN; 
          status CLOSED; 
          } 

object underground_line {
          name   _1100524; 
          from   _96360-B_n; 
          to     _1100524_n; 
          phases ABCN; 
          length 1230; 
          configuration SystemCnstDefaultABC__750 URD UG Conductor; 
          } 

object node {name   _1100524_n; phases ABCN; nominal_voltage 7200;  } 

object node {name   _95667-B_n; phases ABCN; nominal_voltage 7200;  } 

object switch {
          name   _95667-B; 
          from   _1100524_n; 
          to     _95667-B_n; 
          phases ABCN; 
          status CLOSED; 
          } 

object underground_line {
          name   _1100059; 
          from   _95667-B_n; 
          to     _1100059_n; 
          phases ABCN; 
          length 3; 
          configuration SystemCnstDefaultABC__750 URD UG Conductor; 
          } 

object node {name   _1100059_n; phases ABCN; nominal_voltage 7200;  } 

object underground_line {
          name   _1100081; 
          from   _1100059_n; 
          to     _1100081_n; 
          phases ABCN; 
          length 4; 
          configuration SystemCnstDefaultABC__750 URD UG Conductor; 
          } 

object node {name   _1100081_n; phases ABCN; nominal_voltage 7200;  } 

object node {name   _96224-B_n; phases ABCN; nominal_voltage 7200;  } 

object switch {
          name   _96224-B; 
          from   _1100081_n; 
          to     _96224-B_n; 
          phases ABCN; 
          status CLOSED; 
          } 

object underground_line {
          name   _1100752; 
          from   _96224-B_n; 
          to     _1100752_n; 
          phases ABCN; 
          length 1676; 
          configuration SystemCnstDefaultABC__750 URD UG Conductor; 
          } 

object node {name   _1100752_n; phases ABCN; nominal_voltage 7200;  } 

object node {name   _95990-B_n; phases ABCN; nominal_voltage 7200;  } 

object switch {
          name   _95990-B; 
          from   _1100752_n; 
          to     _95990-B_n; 
          phases ABCN; 
          status CLOSED; 
          } 

object underground_line {
          name   _1100753; 
          from   _95990-B_n; 
          to     _1100753_n; 
          phases ABCN; 
          length 2; 
          configuration SystemCnstDefaultABC__750 URD UG Conductor; 
          } 

object node {name   _1100753_n; phases ABCN; nominal_voltage 7200;  } 

object underground_line {
          name   _1100755; 
          from   _1100753_n; 
          to     _1100755_n; 
          phases ABCN; 
          length 21; 
          configuration SystemCnstDefaultABC__1/0 URD UG Conductor; 
          } 

object node {name   _1100755_n; phases ABCN; nominal_voltage 7200;  } 

object fuse {
          name          R96398; 
          from          _1100755_n; 
          to            R96398_n; 
          phases        ABCN; 
          current_limit 0; 
          mean_replacement_time 1.0 ; 
          repair_dist_type      NONE; 
          } 

object node {name   R96398_n; phases ABCN; nominal_voltage 7200;  } 

object underground_line {
          name   _1100754; 
          from   R96398_n; 
          to     _1100754_n; 
          phases ABCN; 
          length 501; 
          configuration SystemCnstDefaultABC__1/0 URD UG Conductor; 
          } 

object node {name   _1100754_n; phases ABCN; nominal_voltage 7200;  } 

object underground_line {
          name   _1094498; 
          from   _1100754_n; 
          to     _1094498_n; 
          phases ABCN; 
          length 901; 
          configuration SystemCnstDefaultABC__1/0 URD UG Conductor; 
          } 

object node {name   _1094498_n; phases ABCN; nominal_voltage 7200;  } 

object underground_line {
          name   _1094497; 
          from   _1094498_n; 
          to     _1094497_n; 
          phases ABCN; 
          length 785; 
          configuration SystemCnstDefaultABC__1/0 URD UG Conductor; 
          } 

object node {name   _1094497_n; phases ABCN; nominal_voltage 7200;  } 

object underground_line {
          name   _1094495; 
          from   _1094497_n; 
          to     _1094495_n; 
          phases ABCN; 
          length 357; 
          configuration SystemCnstDefaultABC__1/0 URD UG Conductor; 
          } 

object node {name   _1094495_n; phases ABCN; nominal_voltage 7200;  } 

object underground_line {
          name   _1102248; 
          from   _1094495_n; 
          to     _1102248_n; 
          phases ABCN; 
          length 185; 
          configuration SystemCnstDefaultABC__1/0 URD UG Conductor; 
          } 

object node {name   _1102248_n; phases ABCN; nominal_voltage 7200;  } 

object transformer {
          name   _443118; 
          from   _1094495_n; 
          to     _443118_n; 
          phases ABCN; 
          configuration WYE_WYE-_150-UG3Ph-7200To120V; 
          } 

object node {name   _443118_n; phases ABCN; nominal_voltage 120;  } 

object transformer {
          name   _443116; 
          from   _1094497_n; 
          to     _443116_n; 
          phases ABCN; 
          configuration WYE_WYE-_750-UG3Ph-7200To480V; 
          } 

object node {name   _443116_n; phases ABCN; nominal_voltage 480;  } 

object transformer {
          name   _443121; 
          from   _1094498_n; 
          to     _443121_n; 
          phases ABCN; 
          configuration WYE_WYE-_750-UG3Ph-7200To480V; 
          } 

object node {name   _443121_n; phases ABCN; nominal_voltage 480;  } 

object transformer {
          name   _443120; 
          from   _1100754_n; 
          to     _443120_n; 
          phases ABCN; 
          configuration WYE_WYE-_750-UG3Ph-7200To120V; 
          } 

object node {name   _443120_n; phases ABCN; nominal_voltage 120;  } 

object overhead_line {
          name   _1099647; 
          from   _1075246_n; 
          to     _1099647_n; 
          phases ABCN; 
          length 418; 
          configuration SystemCnstDefaultABCN__#4 ACSR 6/1; 
          } 

object node {name   _1099647_n; phases ABCN; nominal_voltage 7200;  } 

object overhead_line {
          name   _1099706; 
          from   _1099647_n; 
          to     _1099706_n; 
          phases ABCN; 
          length 320; 
          configuration SystemCnstDefaultABCN__#4 ACSR 6/1; 
          } 

object node {name   _1099706_n; phases ABCN; nominal_voltage 7200;  } 

object transformer {
          name   _452170; 
          from   _1099706_n; 
          to     _452170_n; 
          phases ABCN; 
          configuration WYE_WYE-_75-Overheadx3-7200To120V; 
          } 

object node {name   _452170_n; phases ABCN; nominal_voltage 120;  } 

object overhead_line {
          name   _1099707; 
          from   _1099647_n; 
          to     _1099707_n; 
          phases BN; 
          length 78; 
          configuration SystemCnstDefaultBN__6 A (CWC); 
          } 

object node {name   _1099707_n; phases BN; nominal_voltage 7200;  } 

object fuse {
          name          D92877; 
          from          _1099707_n; 
          to            D92877_n; 
          phases        BN; 
          current_limit 0; 
          mean_replacement_time 1.0 ; 
          repair_dist_type      NONE; 
          } 

object node {name   D92877_n; phases BN; nominal_voltage 7200;  } 

object overhead_line {
          name   _1099708; 
          from   D92877_n; 
          to     _1099708_n; 
          phases BN; 
          length 344; 
          configuration SystemCnstDefaultBN__6 A (CWC); 
          } 

object node {name   _1099708_n; phases BN; nominal_voltage 7200;  } 

object transformer {
          name   _450329; 
          from   _1099708_n; 
          to     _450329_n; 
          phases BN; 
          configuration SINGLE_PHASE-_15-Overhead-7200To240V; 
          } 

object node {name   _450329_n; phases BN; nominal_voltage 240;  } 

object overhead_line {
          name   _1154078; 
          from   _1075246_n; 
          to     _1154078_n; 
          phases ABCN; 
          length 114; 
          configuration SystemCnstDefaultABCN__#4 ACSR 6/1; 
          } 

object node {name   _1154078_n; phases ABCN; nominal_voltage 7200;  } 

object overhead_line {
          name   _1099561; 
          from   _1154078_n; 
          to     _1099561_n; 
          phases ABCN; 
          length 486; 
          configuration SystemCnstDefaultABCN__#4 ACSR 6/1; 
          } 

object node {name   _1099561_n; phases ABCN; nominal_voltage 7200;  } 

object underground_line {
          name   _1076093; 
          from   _1099561_n; 
          to     _1076093_n; 
          phases ABCN; 
          length 407; 
          configuration SystemCnstDefaultABC__1/0 URD UG Conductor; 
          } 

object node {name   _1076093_n; phases ABCN; nominal_voltage 7200;  } 

object transformer {
          name   _430597; 
          from   _1076093_n; 
          to     _430597_n; 
          phases ABCN; 
          configuration WYE_WYE-_1000-UG3Ph-7200To120V; 
          } 

object node {name   _430597_n; phases ABCN; nominal_voltage 120;  } 

object overhead_line {
          name   _1099562; 
          from   _1099561_n; 
          to     _1099562_n; 
          phases ABCN; 
          length 377; 
          configuration SystemCnstDefaultABCN__#4 ACSR 6/1; 
          } 

object node {name   _1099562_n; phases ABCN; nominal_voltage 7200;  } 

object transformer {
          name   _438096; 
          from   _1099562_n; 
          to     _438096_n; 
          phases ABCN; 
          configuration WYE_WYE-_501-Overheadx3-7200To120V; 
          } 

object node {name   _438096_n; phases ABCN; nominal_voltage 120;  } 

object transformer {
          name   _451102; 
          from   _1154078_n; 
          to     _451102_n; 
          phases ABCN; 
          configuration WYE_WYE-_150-Overheadx3-7200To480V; 
          } 

object node {name   _451102_n; phases ABCN; nominal_voltage 480;  } 

object transformer {
          name   _440120; 
          from   _1075246_n; 
          to     _440120_n; 
          phases BN; 
          configuration SINGLE_PHASE-_10-Overhead-7200To240V; 
          } 

object node {name   _440120_n; phases BN; nominal_voltage 240;  } 

object underground_line {
          name   _1076786; 
          from   _1078953_n; 
          to     _1076786_n; 
          phases ABCN; 
          length 1430; 
          configuration SystemCnstDefaultABC__4/0 URD UG Conductor; 
          } 

object node {name   _1076786_n; phases ABCN; nominal_voltage 7200;  } 

object underground_line {
          name   _1075245; 
          from   _1076786_n; 
          to     _1075245_n; 
          phases BN; 
          length 62; 
          configuration SystemCnstDefaultB__1/0 URD UG Conductor; 
          } 

object node {name   _1075245_n; phases BN; nominal_voltage 7200;  } 

object transformer {
          name   _440133; 
          from   _1075245_n; 
          to     _440133_n; 
          phases BN; 
          configuration SINGLE_PHASE-_15-Underground PM-7200To240V; 
          } 

object node {name   _440133_n; phases BN; nominal_voltage 240;  } 

object underground_line {
          name   _1089731; 
          from   _1076786_n; 
          to     _1089731_n; 
          phases ACN; 
          length 79; 
          configuration SystemCnstDefaultAC__1/0 URD UG Conductor; 
          } 

object node {name   _1089731_n; phases ACN; nominal_voltage 7200;  } 

object transformer {
          name   _438319; 
          from   _1089731_n; 
          to     _438319_n; 
          phases ACN; 
          configuration WYE_WYE-_20-Overheadx2-7200To120V; 
          } 

object node {name   _438319_n; phases ACN; nominal_voltage 120;  } 

object underground_line {
          name   _1085565; 
          from   _1078953_n; 
          to     _1085565_n; 
          phases AN; 
          length 212; 
          configuration SystemCnstDefaultA__1/0 URD UG Conductor; 
          } 

object node {name   _1085565_n; phases AN; nominal_voltage 7200;  } 

object underground_line {
          name   _1085566; 
          from   _1085565_n; 
          to     _1085566_n; 
          phases AN; 
          length 59; 
          configuration SystemCnstDefaultA__1/0 URD UG Conductor; 
          } 

object node {name   _1085566_n; phases AN; nominal_voltage 7200;  } 

object transformer {
          name   _440014; 
          from   _1085566_n; 
          to     _440014_n; 
          phases AN; 
          configuration SINGLE_PHASE-_15-Underground PM-7200To480V; 
          } 

object node {name   _440014_n; phases AN; nominal_voltage 480;  } 

object transformer {
          name   _431061; 
          from   _1085565_n; 
          to     _431061_n; 
          phases AN; 
          configuration SINGLE_PHASE-_15-Underground PM-7200To240V; 
          } 

object node {name   _431061_n; phases AN; nominal_voltage 240;  } 

object underground_line {
          name   _1100697; 
          from   _1100696_n; 
          to     _1100697_n; 
          phases ABCN; 
          length 3; 
          configuration SystemCnstDefaultABC__750 URD UG Conductor; 
          } 

object node {name   _1100697_n; phases ABCN; nominal_voltage 7200;  } 

object node {name   _96388-B_n; phases ABCN; nominal_voltage 7200;  } 

object switch {
          name   _96388-B; 
          from   _1100697_n; 
          to     _96388-B_n; 
          phases ABCN; 
          status CLOSED; 
          } 

object underground_line {
          name   _1100698; 
          from   _96388-B_n; 
          to     _1100698_n; 
          phases ABCN; 
          length 1846; 
          configuration SystemCnstDefaultABC__750 URD UG Conductor; 
          } 

object node {name   _1075744_n; phases AN; nominal_voltage 7200;  } 

object switch {
          name   _95123-B; 
          from   _1075744_n; 
          to     _1093581_n; 
          phases AN; 
          status OPEN; 
          } 

object underground_line {
          name   _1102056; 
          from   _1081186_n; 
          to     _1102056_n; 
          phases ABCN; 
          length 11; 
          configuration SystemCnstDefaultABC__1/0 URD UG Conductor; 
          } 

object node {name   _1102056_n; phases ABCN; nominal_voltage 7200;  } 

object transformer {
          name   _445801; 
          from   _1102056_n; 
          to     _445801_n; 
          phases ABCN; 
          configuration WYE_WYE-_75-UG3Ph-7200To120V; 
          } 

object node {name   _445801_n; phases ABCN; nominal_voltage 120;  } 

object underground_line {
          name   _1100467; 
          from   _1100459_n; 
          to     _1100467_n; 
          phases ABCN; 
          length 3; 
          configuration SystemCnstDefaultABC__750 URD UG Conductor; 
          } 

object node {name   _1100467_n; phases ABCN; nominal_voltage 7200;  } 

object node {name   _96358-B_n; phases ABCN; nominal_voltage 7200;  } 

object switch {
          name   _96358-B; 
          from   _1100467_n; 
          to     _96358-B_n; 
          phases ABCN; 
          status CLOSED; 
          } 

object underground_line {
          name   _1100600; 
          from   _96358-B_n; 
          to     _1100600_n; 
          phases ABCN; 
          length 1774; 
          configuration SystemCnstDefaultABC__750 URD UG Conductor; 
          } 

object node {name   _1100600_n; phases ABCN; nominal_voltage 7200;  } 

object node {name   _95906-B_n; phases ABCN; nominal_voltage 7200;  } 

object switch {
          name   _95906-B; 
          from   _1100600_n; 
          to     _95906-B_n; 
          phases ABCN; 
          status CLOSED; 
          } 

object underground_line {
          name   _1100601; 
          from   _95906-B_n; 
          to     _1100601_n; 
          phases ABCN; 
          length 3; 
          configuration SystemCnstDefaultABC__750 URD UG Conductor; 
          } 

object node {name   _1100601_n; phases ABCN; nominal_voltage 7200;  } 

object underground_line {
          name   _1080827; 
          from   _1100601_n; 
          to     _1080827_n; 
          phases ABCN; 
          length 26; 
          configuration SystemCnstDefaultABC__1/0 URD UG Conductor; 
          } 

object node {name   _1080827_n; phases ABCN; nominal_voltage 7200;  } 

object fuse {
          name          R93861; 
          from          _1080827_n; 
          to            R93861_n; 
          phases        ABCN; 
          current_limit 0; 
          mean_replacement_time 1.0 ; 
          repair_dist_type      NONE; 
          } 

object node {name   R93861_n; phases ABCN; nominal_voltage 7200;  } 

object underground_line {
          name   _1080828; 
          from   R93861_n; 
          to     _1080828_n; 
          phases ABCN; 
          length 118; 
          configuration SystemCnstDefaultABC__1/0 URD UG Conductor; 
          } 

object node {name   _1080828_n; phases ABCN; nominal_voltage 7200;  } 

object overhead_line {
          name   _1099594; 
          from   _1080828_n; 
          to     _1099594_n; 
          phases ABCN; 
          length 272; 
          configuration SystemCnstDefaultABCN__#4 ACSR 6/1; 
          } 

object node {name   _1099594_n; phases ABCN; nominal_voltage 7200;  } 

object overhead_line {
          name   _1070469; 
          from   _1099594_n; 
          to     _1070469_n; 
          phases ABCN; 
          length 240; 
          configuration SystemCnstDefaultABCN__6 A (CWC); 
          } 

object node {name   _1070469_n; phases ABCN; nominal_voltage 7200;  } 

object underground_line {
          name   _1076003; 
          from   _1070469_n; 
          to     _1076003_n; 
          phases ABCN; 
          length 95; 
          configuration SystemCnstDefaultABC__1/0 URD UG Conductor; 
          } 

object node {name   _1076003_n; phases ABCN; nominal_voltage 7200;  } 

object transformer {
          name   _438108; 
          from   _1076003_n; 
          to     _438108_n; 
          phases ABCN; 
          configuration WYE_WYE-_150-Underground PMx3-7200To120V; 
          } 

object node {name   _438108_n; phases ABCN; nominal_voltage 120;  } 

object overhead_line {
          name   _1099595; 
          from   _1099594_n; 
          to     _1099595_n; 
          phases ABCN; 
          length 399; 
          configuration SystemCnstDefaultABCN__#4 ACSR 6/1; 
          } 

object node {name   _1099595_n; phases ABCN; nominal_voltage 7200;  } 

object underground_line {
          name   _1075632; 
          from   _1099595_n; 
          to     _1075632_n; 
          phases ABCN; 
          length 160; 
          configuration SystemCnstDefaultABC__1/0 URD UG Conductor; 
          } 

object node {name   _1075632_n; phases ABCN; nominal_voltage 7200;  } 

object transformer {
          name   _435340; 
          from   _1075632_n; 
          to     _435340_n; 
          phases ABCN; 
          configuration WYE_WYE-_500-UG3Ph-7200To120V; 
          } 

object node {name   _435340_n; phases ABCN; nominal_voltage 120;  } 

object overhead_line {
          name   _1099560; 
          from   _1099595_n; 
          to     _1099560_n; 
          phases ABCN; 
          length 223; 
          configuration SystemCnstDefaultABCN__#4 ACSR 6/1; 
          } 

object node {name   _1099560_n; phases ABCN; nominal_voltage 7200;  } 

object underground_line {
          name   _1075633; 
          from   _1099560_n; 
          to     _1075633_n; 
          phases ABCN; 
          length 162; 
          configuration SystemCnstDefaultABC__1/0 URD UG Conductor; 
          } 

object node {name   _1075633_n; phases ABCN; nominal_voltage 7200;  } 

object transformer {
          name   _437324; 
          from   _1075633_n; 
          to     _437324_n; 
          phases ABCN; 
          configuration WYE_WYE-_500-UG3Ph-7200To120V; 
          } 

object node {name   _437324_n; phases ABCN; nominal_voltage 120;  } 

object overhead_line {
          name   _1093750; 
          from   _1099560_n; 
          to     _1093750_n; 
          phases ABCN; 
          length 273; 
          configuration SystemCnstDefaultABCN__#4 ACSR 6/1; 
          } 

object node {name   _1093750_n; phases ABCN; nominal_voltage 7200;  } 

object transformer {
          name   _441303; 
          from   _1093750_n; 
          to     _441303_n; 
          phases ABCN; 
          configuration WYE_WYE-_225-Overheadx3-7200To120V; 
          } 

object node {name   _441303_n; phases ABCN; nominal_voltage 120;  } 

object transformer {
          name   _440394; 
          from   _1099560_n; 
          to     _440394_n; 
          phases AN; 
          configuration SINGLE_PHASE-_15-Overhead-7200To240V; 
          } 

object node {name   _440394_n; phases AN; nominal_voltage 240;  } 

object transformer {
          name   _450222; 
          from   _1099595_n; 
          to     _450222_n; 
          phases BN; 
          configuration SINGLE_PHASE-_15-Overhead-7200To240V; 
          } 

object node {name   _450222_n; phases BN; nominal_voltage 240;  } 

object transformer {
          name   _449724; 
          from   _1099594_n; 
          to     _449724_n; 
          phases BN; 
          configuration SINGLE_PHASE-_15-Overhead-7200To240V; 
          } 

object node {name   _449724_n; phases BN; nominal_voltage 240;  } 

object underground_line {
          name   _1100602; 
          from   _1100601_n; 
          to     _1100602_n; 
          phases ABCN; 
          length 3; 
          configuration SystemCnstDefaultABC__750 URD UG Conductor; 
          } 

object node {name   _1100602_n; phases ABCN; nominal_voltage 7200;  } 

object node {name   _96365-B_n; phases ABCN; nominal_voltage 7200;  } 

object switch {
          name   _96365-B; 
          from   _1100602_n; 
          to     _96365-B_n; 
          phases ABCN; 
          status CLOSED; 
          } 

object underground_line {
          name   _1100603; 
          from   _96365-B_n; 
          to     _1100603_n; 
          phases ABCN; 
          length 1660; 
          configuration SystemCnstDefaultABC__750 URD UG Conductor; 
          } 

object node {name   _1100603_n; phases ABCN; nominal_voltage 7200;  } 

object node {name   _95903-B_n; phases ABCN; nominal_voltage 7200;  } 

object switch {
          name   _95903-B; 
          from   _1100603_n; 
          to     _95903-B_n; 
          phases ABCN; 
          status CLOSED; 
          } 

object underground_line {
          name   _1100696; 
          from   _95903-B_n; 
          to     _1100696_n; 
          phases ABCN; 
          length 3; 
          configuration SystemCnstDefaultABC__750 URD UG Conductor; 
          } 

object node {name   _1100696_n; phases ABCN; nominal_voltage 7200;  } 

object underground_line {
          name   _1078952; 
          from   _1100696_n; 
          to     _1078952_n; 
          phases ABCN; 
          length 32.996952; 
          configuration SystemCnstDefaultABC__4/0 URD UG Conductor; 
          } 

object node {name   _1078952_n; phases ABCN; nominal_voltage 7200;  } 

object fuse {
          name          R92887; 
          from          _1078952_n; 
          to            R92887_n; 
          phases        ABCN; 
          current_limit 0; 
          mean_replacement_time 1.0 ; 
          repair_dist_type      NONE; 
          } 

object node {name   R92887_n; phases ABCN; nominal_voltage 7200;  } 

object underground_line {
          name   _1078953; 
          from   R92887_n; 
          to     _1078953_n; 
          phases ABCN; 
          length 32; 
          configuration SystemCnstDefaultABC__4/0 URD UG Conductor; 
          } 

object node {name   _1078953_n; phases ABCN; nominal_voltage 7200;  } 

object underground_line {
          name   _1075246; 
          from   _1078953_n; 
          to     _1075246_n; 
          phases ABCN; 
          length 99; 
          configuration SystemCnstDefaultABC__1/0 URD UG Conductor; 
          } 

object node {name   _1075246_n; phases ABCN; nominal_voltage 7200;  } 

object fuse {
          name          R92881; 
          from          _1078943_n; 
          to            R92881_n; 
          phases        ABCN; 
          current_limit 0; 
          mean_replacement_time 1.0 ; 
          repair_dist_type      NONE; 
          } 

object node {name   R92881_n; phases ABCN; nominal_voltage 7200;  } 

object underground_line {
          name   _1078944; 
          from   R92881_n; 
          to     _1078944_n; 
          phases ABCN; 
          length 700; 
          configuration SystemCnstDefaultABC__4/0 URD UG Conductor; 
          } 

object node {name   _1078944_n; phases ABCN; nominal_voltage 7200;  } 

object underground_line {
          name   _1084979; 
          from   _1078944_n; 
          to     _1084979_n; 
          phases ABCN; 
          length 787; 
          configuration SystemCnstDefaultABC__4/0 URD UG Conductor; 
          } 

object node {name   _1084979_n; phases ABCN; nominal_voltage 7200;  } 

object switch {
          name   _102517-B; 
          from   _1084979_n; 
          to     _1151939_n; 
          phases ABCN; 
          status OPEN; 
          } 

object transformer {
          name   _447781; 
          from   _1078944_n; 
          to     _447781_n; 
          phases ABCN; 
          configuration WYE_WYE-_75-UG3Ph-7200To120V; 
          } 

object node {name   _447781_n; phases ABCN; nominal_voltage 120;  } 

object underground_line {
          name   _1100789; 
          from   _1100792_n; 
          to     _1100789_n; 
          phases ABCN; 
          length 67; 
          configuration SystemCnstDefaultABC__1/0 URD UG Conductor; 
          } 

object node {name   _1100789_n; phases ABCN; nominal_voltage 7200;  } 

object fuse {
          name          R96397; 
          from          _1100789_n; 
          to            R96397_n; 
          phases        ABCN; 
          current_limit 0; 
          mean_replacement_time 1.0 ; 
          repair_dist_type      NONE; 
          } 

object node {name   R96397_n; phases ABCN; nominal_voltage 7200;  } 

object underground_line {
          name   _1100790; 
          from   R96397_n; 
          to     _1100790_n; 
          phases ABCN; 
          length 317; 
          configuration SystemCnstDefaultABC__1/0 URD UG Conductor; 
          } 

object node {name   _1100790_n; phases ABCN; nominal_voltage 7200;  } 

object underground_line {
          name   _1100793; 
          from   _1100792_n; 
          to     _1100793_n; 
          phases ABCN; 
          length 11; 
          configuration SystemCnstDefaultABC__750 URD UG Conductor; 
          } 

object node {name   _1100793_n; phases ABCN; nominal_voltage 7200;  } 

object underground_line {
          name   _1100703; 
          from   _1100700_n; 
          to     _1100703_n; 
          phases ABCN; 
          length 4; 
          configuration SystemCnstDefaultABC__500 URD UG Conductor; 
          } 

object node {name   _1100703_n; phases ABCN; nominal_voltage 7200;  } 

object node {name   _96364-B_n; phases ABCN; nominal_voltage 7200;  } 

object switch {
          name   _96364-B; 
          from   _1100703_n; 
          to     _96364-B_n; 
          phases ABCN; 
          status CLOSED; 
          } 

object underground_line {
          name   _1104381; 
          from   _96364-B_n; 
          to     _1104381_n; 
          phases ABCN; 
          length 1510; 
          configuration SystemCnstDefaultABC__500 URD UG Conductor; 
          } 

object node {name   _1104381_n; phases ABCN; nominal_voltage 7200;  } 

object node {name   _98643-B_n; phases ABCN; nominal_voltage 7200;  } 

object switch {
          name   _98643-B; 
          from   _1104381_n; 
          to     _98643-B_n; 
          phases ABCN; 
          status CLOSED; 
          } 

object underground_line {
          name   _1104382; 
          from   _98643-B_n; 
          to     _1104382_n; 
          phases ABCN; 
          length 3; 
          configuration SystemCnstDefaultABC__500 URD UG Conductor; 
          } 

object node {name   _1104382_n; phases ABCN; nominal_voltage 7200;  } 

object underground_line {
          name   _1104377; 
          from   _1104382_n; 
          to     _1104377_n; 
          phases ABCN; 
          length 38; 
          configuration SystemCnstDefaultABC__750 URD UG Conductor; 
          } 

object node {name   _1104377_n; phases ABCN; nominal_voltage 7200;  } 

object node {name   _98641-B_n; phases ABCN; nominal_voltage 7200;  } 

object switch {
          name   _98641-B; 
          from   _1104377_n; 
          to     _98641-B_n; 
          phases ABCN; 
          status CLOSED; 
          } 

object underground_line {
          name   _1104376; 
          from   _98641-B_n; 
          to     _1104376_n; 
          phases ABCN; 
          length 1185; 
          configuration SystemCnstDefaultABC__750 URD UG Conductor; 
          } 

object node {name   _1104376_n; phases ABCN; nominal_voltage 7200;  } 

object underground_line {
          name   _1104379; 
          from   _1104382_n; 
          to     _1104379_n; 
          phases ABCN; 
          length 7.6190114; 
          configuration SystemCnstDefaultABC__500 URD UG Conductor; 
          } 

object node {name   _1104379_n; phases ABCN; nominal_voltage 7200;  } 

object node {name   _98642-B_n; phases ABCN; nominal_voltage 7200;  } 

object switch {
          name   _98642-B; 
          from   _1104379_n; 
          to     _98642-B_n; 
          phases ABCN; 
          status CLOSED; 
          } 

object underground_line {
          name   _1104380; 
          from   _98642-B_n; 
          to     _1104380_n; 
          phases ABCN; 
          length 164; 
          configuration SystemCnstDefaultABC__500 URD UG Conductor; 
          } 

object node {name   _1104380_n; phases ABCN; nominal_voltage 7200;  } 

object underground_line {
          name   _1104378; 
          from   _1104380_n; 
          to     _1104378_n; 
          phases ABCN; 
          length 923; 
          configuration SystemCnstDefaultABC__500 URD UG Conductor; 
          } 

object node {name   _1104378_n; phases ABCN; nominal_voltage 7200;  } 

object underground_line {
          name   _1151937; 
          from   _1104382_n; 
          to     _1151937_n; 
          phases ABCN; 
          length 22; 
          configuration SystemCnstDefaultABC__1/0 URD UG Conductor; 
          } 

object node {name   _1151937_n; phases ABCN; nominal_voltage 7200;  } 

object fuse {
          name          R102508; 
          from          _1151937_n; 
          to            R102508_n; 
          phases        ABCN; 
          current_limit 0; 
          mean_replacement_time 1.0 ; 
          repair_dist_type      NONE; 
          } 

object node {name   R102508_n; phases ABCN; nominal_voltage 7200;  } 

object underground_line {
          name   _1151938; 
          from   R102508_n; 
          to     _1151938_n; 
          phases ABCN; 
          length 300; 
          configuration SystemCnstDefaultABC__1/0 URD UG Conductor; 
          } 

object node {name   _1151938_n; phases ABCN; nominal_voltage 7200;  } 

object underground_line {
          name   _1073352; 
          from   _1151938_n; 
          to     _1073352_n; 
          phases CN; 
          length 68; 
          configuration SystemCnstDefaultC__1/0 URD UG Conductor; 
          } 

object node {name   _1073352_n; phases CN; nominal_voltage 7200;  } 

object transformer {
          name   _430598; 
          from   _1073352_n; 
          to     _430598_n; 
          phases CN; 
          configuration SINGLE_PHASE-_15-Underground PM-7200To240V; 
          } 

object node {name   _430598_n; phases CN; nominal_voltage 240;  } 

object underground_line {
          name   _1099587; 
          from   _1151938_n; 
          to     _1099587_n; 
          phases ABCN; 
          length 658; 
          configuration SystemCnstDefaultABC__4/0 URD UG Conductor; 
          } 

object node {name   _1099587_n; phases ABCN; nominal_voltage 7200;  } 

object underground_line {
          name   _1084978; 
          from   _1099587_n; 
          to     _1084978_n; 
          phases ABCN; 
          length 699; 
          configuration SystemCnstDefaultABC__4/0 URD UG Conductor; 
          } 

object node {name   _1084978_n; phases ABCN; nominal_voltage 7200;  } 

object underground_line {
          name   _1151939; 
          from   _1084978_n; 
          to     _1151939_n; 
          phases ABCN; 
          length 48; 
          configuration SystemCnstDefaultABC__4/0 URD UG Conductor; 
          } 

object node {name   _1151939_n; phases ABCN; nominal_voltage 7200;  } 

object transformer {
          name   _430601; 
          from   _1084978_n; 
          to     _430601_n; 
          phases ABCN; 
          configuration WYE_WYE-_300-UG3Ph-7200To120V; 
          } 

object node {name   _430601_n; phases ABCN; nominal_voltage 120;  } 

object transformer {
          name   _430599; 
          from   _1099587_n; 
          to     _430599_n; 
          phases ABCN; 
          configuration WYE_WYE-_300-UG3Ph-7200To480V; 
          } 

object node {name   _430599_n; phases ABCN; nominal_voltage 480;  } 

object underground_line {
          name   _1151935; 
          from   _1074042_n; 
          to     _1151935_n; 
          phases ABCN; 
          length 8; 
          configuration SystemCnstDefaultABC__750 URD UG Conductor; 
          } 

object node {name   _1151935_n; phases ABCN; nominal_voltage 7200;  } 

object underground_line {
          name   _1081185; 
          from   _1100459_n; 
          to     _1081185_n; 
          phases ABCN; 
          length 12; 
          configuration SystemCnstDefaultABC__4/0 URD UG Conductor; 
          } 

object node {name   _1081185_n; phases ABCN; nominal_voltage 7200;  } 

object fuse {
          name          R94071; 
          from          _1081185_n; 
          to            R94071_n; 
          phases        ABCN; 
          current_limit 0; 
          mean_replacement_time 1.0 ; 
          repair_dist_type      NONE; 
          } 

object node {name   R94071_n; phases ABCN; nominal_voltage 7200;  } 

object underground_line {
          name   _1081186; 
          from   R94071_n; 
          to     _1081186_n; 
          phases ABCN; 
          length 36; 
          configuration SystemCnstDefaultABC__4/0 URD UG Conductor; 
          } 

object node {name   _1081186_n; phases ABCN; nominal_voltage 7200;  } 

object underground_line {
          name   _1075744; 
          from   _1081186_n; 
          to     _1075744_n; 
          phases AN; 
          length 26; 
          configuration SystemCnstDefaultA__4/0 URD UG Conductor; 
          } 

object switch {
          name   _94568-A; 
          from   _1075221_n; 
          to     _1104376_n; 
          phases ABCN; 
          status OPEN; 
          } 

object underground_line {
          name   _1078945; 
          from   _1100473_n; 
          to     _1078945_n; 
          phases ABCN; 
          length 37; 
          configuration SystemCnstDefaultABC__4/0 URD UG Conductor; 
          } 

object node {name   _1078945_n; phases ABCN; nominal_voltage 7200;  } 

object fuse {
          name          D92882; 
          from          _1078945_n; 
          to            D92882_n; 
          phases        ABCN; 
          current_limit 0; 
          mean_replacement_time 1.0 ; 
          repair_dist_type      NONE; 
          } 

object node {name   D92882_n; phases ABCN; nominal_voltage 7200;  } 

object underground_line {
          name   _1078946; 
          from   D92882_n; 
          to     _1078946_n; 
          phases ABCN; 
          length 968; 
          configuration SystemCnstDefaultABC__4/0 URD UG Conductor; 
          } 

object node {name   _1078946_n; phases ABCN; nominal_voltage 7200;  } 

object transformer {
          name   _435666; 
          from   _1078946_n; 
          to     _435666_n; 
          phases ABCN; 
          configuration WYE_WYE-_0-UG3Phx3-7200To240V; 
          } 

object node {name   _435666_n; phases ABCN; nominal_voltage 240;  } 

object underground_line {
          name   _1153296; 
          from   _1100473_n; 
          to     _1153296_n; 
          phases ABCN; 
          length 19; 
          configuration SystemCnstDefaultABC__500 URD UG Conductor; 
          } 

object node {name   _1153296_n; phases ABCN; nominal_voltage 7200;  } 

object underground_line {
          name   _1104914; 
          from   _1100069_n; 
          to     _1104914_n; 
          phases ABCN; 
          length 20; 
          configuration SystemCnstDefaultABC__4/0 URD UG Conductor; 
          } 

object node {name   _1104914_n; phases ABCN; nominal_voltage 7200;  } 

object fuse {
          name          R98941; 
          from          _1104914_n; 
          to            R98941_n; 
          phases        ABCN; 
          current_limit 0; 
          mean_replacement_time 1.0 ; 
          repair_dist_type      NONE; 
          } 

object node {name   R98941_n; phases ABCN; nominal_voltage 7200;  } 

object underground_line {
          name   _1104918; 
          from   R98941_n; 
          to     _1104918_n; 
          phases ABCN; 
          length 781; 
          configuration SystemCnstDefaultABC__4/0 URD UG Conductor; 
          } 

object node {name   _1104918_n; phases ABCN; nominal_voltage 7200;  } 

object transformer {
          name   _447921; 
          from   _1104918_n; 
          to     _447921_n; 
          phases ABCN; 
          configuration WYE_WYE-_2000-UG3Ph-7200To120V; 
          } 

object node {name   _447921_n; phases ABCN; nominal_voltage 120;  } 

object underground_line {
          name   _1151934; 
          from   _1151928_n; 
          to     _1151934_n; 
          phases ABCN; 
          length 12; 
          configuration SystemCnstDefaultABC__750 URD UG Conductor; 
          } 

object node {name   _1151934_n; phases ABCN; nominal_voltage 7200;  } 

object node {name   _102515-B_n; phases ABCN; nominal_voltage 7200;  } 

object switch {
          name   _102515-B; 
          from   _1151934_n; 
          to     _102515-B_n; 
          phases ABCN; 
          status CLOSED; 
          } 

object underground_line {
          name   _1151933; 
          from   _102515-B_n; 
          to     _1151933_n; 
          phases ABCN; 
          length 357; 
          configuration SystemCnstDefaultABC__750 URD UG Conductor; 
          } 

object node {name   _1151933_n; phases ABCN; nominal_voltage 7200;  } 

object underground_line {
          name   _1151984; 
          from   _1151928_n; 
          to     _1151984_n; 
          phases ABCN; 
          length 41; 
          configuration SystemCnstDefaultABC__750 URD UG Conductor; 
          } 

object node {name   _1151984_n; phases ABCN; nominal_voltage 7200;  } 

object underground_line {
          name   _1069653; 
          from   ARBOR LAKE; 
          to     _1069653_n; 
          phases ABCN; 
          length 27; 
          configuration SystemCnstDefaultABC__750 URD UG Conductor; 
          } 

object node {name   _1069653_n; phases ABCN; nominal_voltage 7200;  } 

object recloser {
          name                F95619; 
          from                _1069653_n; 
          to                  F95619_n; 
          phases              ABCN; 
          max_number_of_tries 0; 
          } 

object node {name   F95619_n; phases ABCN; nominal_voltage 7200;  } 

object underground_line {
          name   _1077552; 
          from   F95619_n; 
          to     _1077552_n; 
          phases ABCN; 
          length 7; 
          configuration SystemCnstDefaultABC__750 URD UG Conductor; 
          } 

object node {name   _1077552_n; phases ABCN; nominal_voltage 7200;  } 

object underground_line {
          name   _1100458; 
          from   _1077552_n; 
          to     _1100458_n; 
          phases ABCN; 
          length 342; 
          configuration SystemCnstDefaultABC__750 URD UG Conductor; 
          } 

object node {name   _1100458_n; phases ABCN; nominal_voltage 7200;  } 

object node {name   _95879-B_n; phases ABCN; nominal_voltage 7200;  } 

object switch {
          name   _95879-B; 
          from   _1100458_n; 
          to     _95879-B_n; 
          phases ABCN; 
          status CLOSED; 
          } 

object underground_line {
          name   _1100459; 
          from   _95879-B_n; 
          to     _1100459_n; 
          phases ABCN; 
          length 3; 
          configuration SystemCnstDefaultABC__750 URD UG Conductor; 
          } 

object node {name   _1100459_n; phases ABCN; nominal_voltage 7200;  } 

object underground_line {
          name   _1075131; 
          from   _1100459_n; 
          to     _1075131_n; 
          phases ABCN; 
          length 29; 
          configuration SystemCnstDefaultABC__750 URD UG Conductor; 
          } 

object node {name   _1075131_n; phases ABCN; nominal_voltage 7200;  } 

object node {name   _94913-B_n; phases ABCN; nominal_voltage 7200;  } 

object switch {
          name   _94913-B; 
          from   _1075131_n; 
          to     _94913-B_n; 
          phases ABCN; 
          status CLOSED; 
          } 

object underground_line {
          name   _1074042; 
          from   _94913-B_n; 
          to     _1074042_n; 
          phases ABCN; 
          length 25; 
          configuration SystemCnstDefaultABC__750 URD UG Conductor; 
          } 

object node {name   _1074042_n; phases ABCN; nominal_voltage 7200;  } 

object underground_line {
          name   _1100492; 
          from   _1074042_n; 
          to     _1100492_n; 
          phases ABCN; 
          length 3416; 
          configuration SystemCnstDefaultABC__750 URD UG Conductor; 
          } 

object node {name   _1100492_n; phases ABCN; nominal_voltage 7200;  } 

object node {name   _95904-B_n; phases ABCN; nominal_voltage 7200;  } 

object switch {
          name   _95904-B; 
          from   _1100492_n; 
          to     _95904-B_n; 
          phases ABCN; 
          status CLOSED; 
          } 

object underground_line {
          name   _1100699; 
          from   _95904-B_n; 
          to     _1100699_n; 
          phases ABCN; 
          length 1896; 
          configuration SystemCnstDefaultABC__750 URD UG Conductor; 
          } 

object node {name   _1100699_n; phases ABCN; nominal_voltage 7200;  } 

object node {name   _95905-B_n; phases ABCN; nominal_voltage 7200;  } 

object switch {
          name   _95905-B; 
          from   _1100699_n; 
          to     _95905-B_n; 
          phases ABCN; 
          status CLOSED; 
          } 

object underground_line {
          name   _1100700; 
          from   _95905-B_n; 
          to     _1100700_n; 
          phases ABCN; 
          length 4; 
          configuration SystemCnstDefaultABC__750 URD UG Conductor; 
          } 

object node {name   _1100700_n; phases ABCN; nominal_voltage 7200;  } 

object underground_line {
          name   _1075244; 
          from   _1100700_n; 
          to     _1075244_n; 
          phases ABCN; 
          length 70; 
          configuration SystemCnstDefaultABC__750 URD UG Conductor; 
          } 

object node {name   _1075244_n; phases ABCN; nominal_voltage 7200;  } 

object switch {
          name   _94562-B; 
          from   _1075244_n; 
          to     _1100698_n; 
          phases ABCN; 
          status OPEN; 
          } 

object underground_line {
          name   _1100701; 
          from   _1100700_n; 
          to     _1100701_n; 
          phases ABCN; 
          length 4; 
          configuration SystemCnstDefaultABC__750 URD UG Conductor; 
          } 

object node {name   _1100701_n; phases ABCN; nominal_voltage 7200;  } 

object node {name   _96389-B_n; phases ABCN; nominal_voltage 7200;  } 

object switch {
          name   _96389-B; 
          from   _1100701_n; 
          to     _96389-B_n; 
          phases ABCN; 
          status CLOSED; 
          } 

object underground_line {
          name   _1100791; 
          from   _96389-B_n; 
          to     _1100791_n; 
          phases ABCN; 
          length 215; 
          configuration SystemCnstDefaultABC__750 URD UG Conductor; 
          } 

object node {name   _1100791_n; phases ABCN; nominal_voltage 7200;  } 

object node {name   _95970-B_n; phases ABCN; nominal_voltage 7200;  } 

object switch {
          name   _95970-B; 
          from   _1100791_n; 
          to     _95970-B_n; 
          phases ABCN; 
          status CLOSED; 
          } 

object underground_line {
          name   _1100792; 
          from   _95970-B_n; 
          to     _1100792_n; 
          phases ABCN; 
          length 20; 
          configuration SystemCnstDefaultABC__750 URD UG Conductor; 
          } 

object node {name   _1100792_n; phases ABCN; nominal_voltage 7200;  } 

object underground_line {
          name   _1078943; 
          from   _1100792_n; 
          to     _1078943_n; 
          phases ABCN; 
          length 38; 
          configuration SystemCnstDefaultABC__4/0 URD UG Conductor; 
          } 

object node {name   _1078943_n; phases ABCN; nominal_voltage 7200;  } 

object node {name   _102514-B_n; phases ABCN; nominal_voltage 7200;  } 

object switch {
          name   _102514-B; 
          from   _1100119_n; 
          to     _102514-B_n; 
          phases ABCN; 
          status CLOSED; 
          } 

object underground_line {
          name   _1151936; 
          from   _102514-B_n; 
          to     _1151936_n; 
          phases ABCN; 
          length 13; 
          configuration SystemCnstDefaultABC__750 URD UG Conductor; 
          } 

object node {name   _1151936_n; phases ABCN; nominal_voltage 7200;  } 

object underground_line {
          name   _1080835; 
          from   _1151936_n; 
          to     _1080835_n; 
          phases ABCN; 
          length 16; 
          configuration SystemCnstDefaultABC__4/0 URD UG Conductor; 
          } 

object node {name   _1080835_n; phases ABCN; nominal_voltage 7200;  } 

object fuse {
          name          D93865; 
          from          _1080835_n; 
          to            D93865_n; 
          phases        ABCN; 
          current_limit 0; 
          mean_replacement_time 1.0 ; 
          repair_dist_type      NONE; 
          } 

object node {name   D93865_n; phases ABCN; nominal_voltage 7200;  } 

object underground_line {
          name   _1080834; 
          from   D93865_n; 
          to     _1080834_n; 
          phases ABCN; 
          length 384; 
          configuration SystemCnstDefaultABC__4/0 URD UG Conductor; 
          } 

object node {name   _1080834_n; phases ABCN; nominal_voltage 7200;  } 

object underground_line {
          name   _1100118; 
          from   _1151936_n; 
          to     _1100118_n; 
          phases ABCN; 
          length 4; 
          configuration SystemCnstDefaultABC__4/0 URD UG Conductor; 
          } 

object node {name   _1100118_n; phases ABCN; nominal_voltage 7200;  } 

object node {name   _95653-B_n; phases ABCN; nominal_voltage 7200;  } 

object switch {
          name   _95653-B; 
          from   _1100118_n; 
          to     _95653-B_n; 
          phases ABCN; 
          status CLOSED; 
          } 

object underground_line {
          name   _1151931; 
          from   _95653-B_n; 
          to     _1151931_n; 
          phases ABCN; 
          length 145; 
          configuration SystemCnstDefaultABC__750 URD UG Conductor; 
          } 

object node {name   _1151931_n; phases ABCN; nominal_voltage 7200;  } 

object node {name   _102529-B_n; phases ABCN; nominal_voltage 7200;  } 

object switch {
          name   _102529-B; 
          from   _1151931_n; 
          to     _102529-B_n; 
          phases ABCN; 
          status CLOSED; 
          } 

object underground_line {
          name   _1151940; 
          from   _102529-B_n; 
          to     _1151940_n; 
          phases ABCN; 
          length 10; 
          configuration SystemCnstDefaultABC__750 URD UG Conductor; 
          } 

object node {name   _1151940_n; phases ABCN; nominal_voltage 7200;  } 

object underground_line {
          name   _1074126; 
          from   _1151940_n; 
          to     _1074126_n; 
          phases ABCN; 
          length 25; 
          configuration SystemCnstDefaultABC__500 URD UG Conductor; 
          } 

object node {name   _1074126_n; phases ABCN; nominal_voltage 7200;  } 

object switch {
          name   _95141-B; 
          from   _1074126_n; 
          to     _1104378_n; 
          phases ABCN; 
          status OPEN; 
          } 

object underground_line {
          name   _1151932; 
          from   _1151940_n; 
          to     _1151932_n; 
          phases ABCN; 
          length 13; 
          configuration SystemCnstDefaultABC__750 URD UG Conductor; 
          } 

object node {name   _1151932_n; phases ABCN; nominal_voltage 7200;  } 

object switch {
          name   _102523-B; 
          from   _1151932_n; 
          to     _1151933_n; 
          phases ABCN; 
          status OPEN; 
          } 

object underground_line {
          name   _1100120; 
          from   _1151936_n; 
          to     _1100120_n; 
          phases ABCN; 
          length 3; 
          configuration SystemCnstDefaultABC__500 URD UG Conductor; 
          } 

object node {name   _1100120_n; phases ABCN; nominal_voltage 7200;  } 

object node {name   _96218-B_n; phases ABCN; nominal_voltage 7200;  } 

object switch {
          name   _96218-B; 
          from   _1100120_n; 
          to     _96218-B_n; 
          phases ABCN; 
          status CLOSED; 
          } 

object underground_line {
          name   _1100075; 
          from   _96218-B_n; 
          to     _1100075_n; 
          phases ABCN; 
          length 232; 
          configuration SystemCnstDefaultABC__500 URD UG Conductor; 
          } 

object node {name   _1100075_n; phases ABCN; nominal_voltage 7200;  } 

object node {name   _95654-B_n; phases ABCN; nominal_voltage 7200;  } 

object switch {
          name   _95654-B; 
          from   _1100075_n; 
          to     _95654-B_n; 
          phases ABCN; 
          status CLOSED; 
          } 

object underground_line {
          name   _1100069; 
          from   _95654-B_n; 
          to     _1100069_n; 
          phases ABCN; 
          length 4; 
          configuration SystemCnstDefaultABC__500 URD UG Conductor; 
          } 

object node {name   _1100069_n; phases ABCN; nominal_voltage 7200;  } 

object underground_line {
          name   _1080832; 
          from   _1100069_n; 
          to     _1080832_n; 
          phases ABCN; 
          length 27; 
          configuration SystemCnstDefaultABC__4/0 URD UG Conductor; 
          } 

object node {name   _1080832_n; phases ABCN; nominal_voltage 7200;  } 

object fuse {
          name          D93864; 
          from          _1080832_n; 
          to            D93864_n; 
          phases        ABCN; 
          current_limit 0; 
          mean_replacement_time 1.0 ; 
          repair_dist_type      NONE; 
          } 

object node {name   D93864_n; phases ABCN; nominal_voltage 7200;  } 

object underground_line {
          name   _1080833; 
          from   D93864_n; 
          to     _1080833_n; 
          phases ABCN; 
          length 176; 
          configuration SystemCnstDefaultABC__4/0 URD UG Conductor; 
          } 

object node {name   _1080833_n; phases ABCN; nominal_voltage 7200;  } 

object underground_line {
          name   _1100077; 
          from   _1100069_n; 
          to     _1100077_n; 
          phases ABCN; 
          length 3; 
          configuration SystemCnstDefaultABC__500 URD UG Conductor; 
          } 

object node {name   _1100077_n; phases ABCN; nominal_voltage 7200;  } 

object node {name   _96219-B_n; phases ABCN; nominal_voltage 7200;  } 

object switch {
          name   _96219-B; 
          from   _1100077_n; 
          to     _96219-B_n; 
          phases ABCN; 
          status CLOSED; 
          } 

object underground_line {
          name   _1100295; 
          from   _96219-B_n; 
          to     _1100295_n; 
          phases ABCN; 
          length 596; 
          configuration SystemCnstDefaultABC__500 URD UG Conductor; 
          } 

object node {name   _1100295_n; phases ABCN; nominal_voltage 7200;  } 

object node {name   _95720-B_n; phases ABCN; nominal_voltage 7200;  } 

object switch {
          name   _95720-B; 
          from   _1100295_n; 
          to     _95720-B_n; 
          phases ABCN; 
          status CLOSED; 
          } 

object underground_line {
          name   _1100294; 
          from   _95720-B_n; 
          to     _1100294_n; 
          phases ABCN; 
          length 4; 
          configuration SystemCnstDefaultABC__500 URD UG Conductor; 
          } 

object node {name   _1100294_n; phases ABCN; nominal_voltage 7200;  } 

object underground_line {
          name   _1080830; 
          from   _1100294_n; 
          to     _1080830_n; 
          phases ABCN; 
          length 20; 
          configuration SystemCnstDefaultABC__4/0 URD UG Conductor; 
          } 

object node {name   _1080830_n; phases ABCN; nominal_voltage 7200;  } 

object fuse {
          name          D98801; 
          from          _1080830_n; 
          to            D98801_n; 
          phases        ABCN; 
          current_limit 0; 
          mean_replacement_time 1.0 ; 
          repair_dist_type      NONE; 
          } 

object node {name   D98801_n; phases ABCN; nominal_voltage 7200;  } 

object underground_line {
          name   _1080829; 
          from   D98801_n; 
          to     _1080829_n; 
          phases ABCN; 
          length 640; 
          configuration SystemCnstDefaultABC__4/0 URD UG Conductor; 
          } 

object node {name   _1080829_n; phases ABCN; nominal_voltage 7200;  } 

object underground_line {
          name   _1100298; 
          from   _1100294_n; 
          to     _1100298_n; 
          phases ABCN; 
          length 4; 
          configuration SystemCnstDefaultABC__500 URD UG Conductor; 
          } 

object node {name   _1100298_n; phases ABCN; nominal_voltage 7200;  } 

object node {name   _96266-B_n; phases ABCN; nominal_voltage 7200;  } 

object switch {
          name   _96266-B; 
          from   _1100298_n; 
          to     _96266-B_n; 
          phases ABCN; 
          status CLOSED; 
          } 

object underground_line {
          name   _1100488; 
          from   _96266-B_n; 
          to     _1100488_n; 
          phases ABCN; 
          length 1279; 
          configuration SystemCnstDefaultABC__500 URD UG Conductor; 
          } 

object node {name   _1100488_n; phases ABCN; nominal_voltage 7200;  } 

object node {name   _95832-B_n; phases ABCN; nominal_voltage 7200;  } 

object switch {
          name   _95832-B; 
          from   _1100488_n; 
          to     _95832-B_n; 
          phases ABCN; 
          status CLOSED; 
          } 

object underground_line {
          name   _1100473; 
          from   _95832-B_n; 
          to     _1100473_n; 
          phases ABCN; 
          length 3; 
          configuration SystemCnstDefaultABC__500 URD UG Conductor; 
          } 

object node {name   _1100473_n; phases ABCN; nominal_voltage 7200;  } 

object underground_line {
          name   _1075221; 
          from   _1100473_n; 
          to     _1075221_n; 
          phases ABCN; 
          length 19; 
          configuration SystemCnstDefaultABC__500 URD UG Conductor; 
          } 

object node {name   _1075221_n; phases ABCN; nominal_voltage 7200;  } 

object node {name   _1100476_n; phases ABCN; nominal_voltage 7200;  } 

object node {name   _95880-B_n; phases ABCN; nominal_voltage 7200;  } 

object switch {
          name   _95880-B; 
          from   _1100476_n; 
          to     _95880-B_n; 
          phases ABCN; 
          status CLOSED; 
          } 

object underground_line {
          name   _1100486; 
          from   _95880-B_n; 
          to     _1100486_n; 
          phases ABCN; 
          length 4; 
          configuration SystemCnstDefaultABC__750 URD UG Conductor; 
          } 

object node {name   _1100486_n; phases ABCN; nominal_voltage 7200;  } 

object underground_line {
          name   _1074043; 
...